FoamFile {
    version 2.0;
    format ascii;
    class dictionary;
    object fvSolution;
}
solvers {
    U {
        solver smoothSolver;
        tolerance 1e-07;
        relTol 0.01;
        smoother GaussSeidel;
    }
    T {
        solver smoothSolver;
        tolerance 1e-07;
        relTol 0.01;
        smoother GaussSeidel;
    }
    p_rgh {
        solver GAMG;
        tolerance 1e-07;
        relTol 0.01;
        smoother GaussSeidel;
        nPreSweeps 2;
        nPostSweeps 1;
        cacheAgglomeration on;
        agglomerator faceAreaPair;
        nCellsInCoarsestLevel 100;
        mergeLevels 1;
    }
    k {
        solver smoothSolver;
        tolerance 1e-07;
        relTol 0.01;
        smoother GaussSeidel;
    }
    omega {
        solver smoothSolver;
        tolerance 1e-07;
        relTol 0.01;
        smoother GaussSeidel;
    }
    "T.*" {
        solver PBiCG;
        tolerance 1e-08;
        relTol 0.01;
        preconditioner DILU;
    }
}
relaxationFactors {
    fields {
        p_rgh 0.7;
        qr 0.3;
    }
    equations {
        T1 1;
        U 0.3;
        T 0.8;
        k 0.3;
        omega 0.3;
    }
}
SIMPLE {
    nNonOrthogonalCorrectors 4;
    pRefCell 0;
    pRefValue 0.0;
    momentumPredictor on;
    residualControl {
        U 1e-05;
        "p.*" 1e-05;
        T 1e-05;
        k 1e-05;
        omega 1e-05;
    }
}
