FoamFile {
    version 2.0;
    format ascii;
    class dictionary;
    object topoSetDict;
}
actions (
    {
        name region1;
        type cellSet;
        action new;
        source boxToCell;
        sourceInfo {
            box (10000000000.0 10000000000.0 10000000000.0) (20000000000.0 20000000000.0 20000000000.0);
        }
    }
    
    {
        name region1;
        type cellSet;
        action invert;
    }
    
    {
        name region1;
        type cellZoneSet;
        action new;
        source setToCellZone;
        sourceInfo {
            set region1;
        }
    }
);
