FoamFile {
    version 2.0;
    format ascii;
    class dictionary;
    object transportProperties;
}
transportModel Newtonian;
nu nu [ 0 2 -1 0 0 0 0 ] 1.5295e-05;
rhoRef 1.1965;
beta beta [0 0 0 -1 0 0 0] 0.00343;
TRef TRef [0 0 0 1 0 0 0] 273.15;
Pr Pr [0 0 0 0 0 0 0] 0.713;
Prt Prt [0 0 0 0 0 0 0] 0.85;
Cp0 1201.2859999999998;
CpRef 1.0;
