FoamFile {
    version 2.0;
    format ascii;
    class dictionary;
    object viewFactorsDict;
}
debug 1;
globalAgglomerationFactor 48;
writeFacesAgglomeration on;
maxDynListLength 2147483647;
